 CRYSTAL
 PRIMVEC
     1.64439400   -0.00001000   -4.83269700
     5.00008600   -2.81505400    0.02108300
    -5.00008400   -2.81505900   -0.02109100
 PRIMCOORD
   14 1
     3  -0.00000742   -2.81505932   -0.00002339
     3   5.00007758   -2.81505682    0.02106361
    28  -1.67784615   -2.81506275   -2.42689116
    28   3.32223885   -2.81506025   -2.40580416
    28   0.82220270   -1.40753325   -2.41630692
    28   0.82220370   -4.22258975   -2.41631092
     8   5.15394827   -2.81505603   -3.43977614
     8   0.15386327   -2.81505854   -3.46086314
     8   2.42808545   -1.40754023   -3.37046267
     8   2.42808645   -4.22259673   -3.37046666
     8  -3.50955063   -2.81506697   -1.39293368
     8   1.49053437   -2.81506447   -1.37184668
     8  -0.78369123   -4.22258278   -1.46226653
     8  -0.78369223   -1.40752628   -1.46226254