 CRYSTAL
 PRIMVEC
    -2.88129255   -4.99158990   -0.00050097
    -5.76281494    0.00013269   -0.00016296
    -2.88150374   -1.66421919   -4.79617096
 PRIMCOORD
   15 1
     3  -4.32205905   -2.49573188   -0.00032979
     3  -1.44064346   -2.49579366   -0.00025001
     3  -2.88140957    0.00006549   -0.00008042
    28  -1.44075858   -0.83210921   -2.39808932
    28  -4.32215587   -0.83203859   -2.39816523
    28  -5.76282093   -3.32786228   -2.39841352
    28  -2.88139273   -3.32791218   -2.39832606
     8  -7.10282184   -4.10140914   -1.35032184
     8  -4.42272476   -4.10130430   -1.35024615
     8  -2.88114468   -1.66302643   -1.36626244
     8  -5.76281503   -1.78049674   -1.35013324
     8  -4.42276964   -2.55425179   -3.44653698
     8  -7.10288792   -2.55436507   -3.44659487
     8  -8.64447111   -4.99265638   -3.43057044
     8  -5.76279218   -4.87516622   -3.44668908