 CRYSTAL
 PRIMVEC
    -2.79560662   -4.84249568   -0.00021300
    -5.59152741    0.00018140   -0.00021284
    -1.39802565   -0.80715032   -4.71764527
 PRIMCOORD
   12 1
    28  -4.19356728   -2.42115731   -0.00034617
     8  -4.19374318   -2.42125870   -3.76674995
     8  -1.39784921   -0.80704860   -0.95097499
    28  -5.59137059   -4.84240515   -0.00045267
     8  -5.59154649   -4.84250654   -3.76685645
     8  -2.79565252   -3.22829644   -0.95108149
    28  -6.98933098   -2.42106661   -0.00045259
     8  -6.98950688   -2.42116800   -3.76685637
     8  -4.19361291   -0.80695790   -0.95108141
    28  -8.38713429   -4.84231445   -0.00055909
     8  -8.38731019   -4.84241584   -3.76696287
     8  -5.59141622   -3.22820574   -0.95118791