 CRYSTAL
 PRIMVEC
    -2.79429750    4.83986554   -0.00008209
     5.65116604    0.03612535    0.04271719
     2.77752434   -1.62289886   -4.92486877
 PRIMCOORD
   13 1
     3   2.81715294    1.62651592   -2.44115448
    28   2.85686093    4.87597184    0.04260725
    28   5.60312191   -1.60481538   -4.90345538
    28   4.25399041    2.45606187    0.04266165
    28   4.20598669    0.81511347   -4.90351532
     8   5.61271618    0.01401572   -3.93766892
     8   2.79353019    0.02834713   -3.96043344
     8   4.07664099    2.35373472   -3.85873430
     8   1.42122865    2.40522815   -3.96047180
     8   0.02170521    3.23909365   -0.94452763
     8   2.84084787    3.22472537   -0.92184929
     8   1.55779857    0.89937663   -1.02346633
     8   4.21313922    0.84785450   -0.92179367