 CRYSTAL
 PRIMVEC
     4.34407744   -2.51714350   -0.01051253
     2.87529845    4.99834510   -0.00724370
    -1.45974338    0.83887749    4.72905641
 PRIMCOORD
   16 1
     3   1.43112118    0.82989116    4.72192479
    28   2.87981645    1.66003991    2.35566839
     8   4.31761382    2.49010045    3.39057454
     8   1.44201726    0.82997912    1.32077179
     3   2.86877041    3.32906371    4.71830294
    28   1.44216722   -0.83913264    2.35929023
     8   2.87996460   -0.00907210    3.39419639
     8   2.87966649    3.32915167    1.31714994
     3   5.75963374    3.32007824    4.71123576
    28  -0.01104689    1.66902539    2.36273557
     8   1.42675049    2.49908592    3.39764173
     8   2.89523137   -1.67817891    1.31732645
     3   4.32198452    0.82090568    4.71485760
    28   1.42660234    4.16819794    2.35911373
     8   2.86439971    4.99825847    3.39401988
     8   4.33288060    0.82099364    1.31370460